<?xml version="1.0" encoding="UTF-8"?>

<!-- generated on Wed Dec 19 20:42:51 2018 by SUMO netconvert Version 0.32.0
<?xml version="1.0" encoding="UTF-8"?>

<configuration xmlns:xsi="http://www.w3.org/2001/XMLSchema-instance" xsi:noNamespaceSchemaLocation="http://sumo.dlr.de/xsd/netconvertConfiguration.xsd">

    <input>
        <node-files value="cross.nod.xml"/>
        <edge-files value="cross.edg.xml"/>
        <connection-files value="cross.con.xml"/>
        <type-files value="cross.typ.xml"/>
    </input>

    <output>
        <output-file value="cross.net.xml"/>
    </output>

    <processing>
        <no-turnarounds value="true"/>
    </processing>

    <report>
        <verbose value="true"/>
    </report>

</configuration>
-->

<net version="0.27" xmlns:xsi="http://www.w3.org/2001/XMLSchema-instance" xsi:noNamespaceSchemaLocation="http://sumo.dlr.de/xsd/net_file.xsd">

    <location netOffset="750.00,300.00" convBoundary="0.00,0.00,2100.00,600.00" origBoundary="-750.00,-310.00,1350.00,310.00" projParameter="!"/>

    <type id="come_out_of_junction" priority="46" numLanes="1" speed="11.11"/>
    <type id="come_out_of_rd" priority="40" numLanes="1" speed="11.11"/>
    <type id="go_in_to_junction" priority="78" numLanes="1" speed="11.11"/>

    <edge id=":node0_0" function="internal">
        <lane id=":node0_0_0" index="0" speed="11.11" length="4.84" width="3.00" shape="292.25,310.75 292.06,309.44 291.50,308.50 290.56,307.94 289.25,307.75"/>
    </edge>
    <edge id=":node0_1" function="internal">
        <lane id=":node0_1_0" index="0" speed="11.11" length="21.50" width="3.00" shape="292.25,310.75 292.25,289.25"/>
        <lane id=":node0_1_1" index="1" speed="11.11" length="21.50" width="3.00" shape="295.35,310.75 295.35,289.25"/>
    </edge>
    <edge id=":node0_3" function="internal">
        <lane id=":node0_3_0" index="0" speed="11.11" length="11.81" width="3.00" shape="298.45,310.75 299.22,305.37 301.52,301.52 303.15,300.55"/>
    </edge>
    <edge id=":node0_16" function="internal">
        <lane id=":node0_16_0" index="0" speed="11.11" length="8.02" width="3.00" shape="303.15,300.55 305.37,299.22 310.75,298.45"/>
    </edge>
    <edge id=":node0_4" function="internal">
        <lane id=":node0_4_0" index="0" speed="11.11" length="4.84" width="3.00" shape="310.75,307.75 309.44,307.94 308.50,308.50 307.94,309.44 307.75,310.75"/>
    </edge>
    <edge id=":node0_5" function="internal">
        <lane id=":node0_5_0" index="0" speed="11.11" length="21.50" width="3.00" shape="310.75,307.75 289.25,307.75"/>
        <lane id=":node0_5_1" index="1" speed="11.11" length="21.50" width="3.00" shape="310.75,304.65 289.25,304.65"/>
    </edge>
    <edge id=":node0_7" function="internal">
        <lane id=":node0_7_0" index="0" speed="11.11" length="11.81" width="3.00" shape="310.75,301.55 305.37,300.78 301.52,298.48 300.55,296.85"/>
    </edge>
    <edge id=":node0_17" function="internal">
        <lane id=":node0_17_0" index="0" speed="11.11" length="8.02" width="3.00" shape="300.55,296.85 299.22,294.63 298.45,289.25"/>
    </edge>
    <edge id=":node0_8" function="internal">
        <lane id=":node0_8_0" index="0" speed="11.11" length="4.84" width="3.00" shape="307.75,289.25 307.94,290.56 308.50,291.50 309.44,292.06 310.75,292.25"/>
    </edge>
    <edge id=":node0_9" function="internal">
        <lane id=":node0_9_0" index="0" speed="11.11" length="21.50" width="3.00" shape="307.75,289.25 307.75,310.75"/>
        <lane id=":node0_9_1" index="1" speed="11.11" length="21.50" width="3.00" shape="304.65,289.25 304.65,310.75"/>
    </edge>
    <edge id=":node0_11" function="internal">
        <lane id=":node0_11_0" index="0" speed="11.11" length="11.81" width="3.00" shape="301.55,289.25 300.78,294.63 298.48,298.48 296.85,299.45"/>
    </edge>
    <edge id=":node0_18" function="internal">
        <lane id=":node0_18_0" index="0" speed="11.11" length="8.02" width="3.00" shape="296.85,299.45 294.63,300.78 289.25,301.55"/>
    </edge>
    <edge id=":node0_12" function="internal">
        <lane id=":node0_12_0" index="0" speed="11.11" length="4.84" width="3.00" shape="289.25,292.25 290.56,292.06 291.50,291.50 292.06,290.56 292.25,289.25"/>
    </edge>
    <edge id=":node0_13" function="internal">
        <lane id=":node0_13_0" index="0" speed="11.11" length="21.50" width="3.00" shape="289.25,292.25 310.75,292.25"/>
        <lane id=":node0_13_1" index="1" speed="11.11" length="21.50" width="3.00" shape="289.25,295.35 310.75,295.35"/>
    </edge>
    <edge id=":node0_15" function="internal">
        <lane id=":node0_15_0" index="0" speed="11.11" length="11.81" width="3.00" shape="289.25,298.45 294.63,299.22 298.48,301.52 299.45,303.15"/>
    </edge>
    <edge id=":node0_19" function="internal">
        <lane id=":node0_19_0" index="0" speed="11.11" length="8.02" width="3.00" shape="299.45,303.15 300.78,305.37 301.55,310.75"/>
    </edge>
    <edge id=":node1_0" function="internal">
        <lane id=":node1_0_0" index="0" speed="11.11" length="4.84" width="3.00" shape="592.25,310.75 592.06,309.44 591.50,308.50 590.56,307.94 589.25,307.75"/>
    </edge>
    <edge id=":node1_1" function="internal">
        <lane id=":node1_1_0" index="0" speed="11.11" length="21.50" width="3.00" shape="592.25,310.75 592.25,289.25"/>
        <lane id=":node1_1_1" index="1" speed="11.11" length="21.50" width="3.00" shape="595.35,310.75 595.35,289.25"/>
    </edge>
    <edge id=":node1_3" function="internal">
        <lane id=":node1_3_0" index="0" speed="11.11" length="11.81" width="3.00" shape="598.45,310.75 599.22,305.37 601.53,301.52 603.15,300.55"/>
    </edge>
    <edge id=":node1_16" function="internal">
        <lane id=":node1_16_0" index="0" speed="11.11" length="8.02" width="3.00" shape="603.15,300.55 605.37,299.22 610.75,298.45"/>
    </edge>
    <edge id=":node1_4" function="internal">
        <lane id=":node1_4_0" index="0" speed="11.11" length="4.84" width="3.00" shape="610.75,307.75 609.44,307.94 608.50,308.50 607.94,309.44 607.75,310.75"/>
    </edge>
    <edge id=":node1_5" function="internal">
        <lane id=":node1_5_0" index="0" speed="11.11" length="21.50" width="3.00" shape="610.75,307.75 589.25,307.75"/>
        <lane id=":node1_5_1" index="1" speed="11.11" length="21.50" width="3.00" shape="610.75,304.65 589.25,304.65"/>
    </edge>
    <edge id=":node1_7" function="internal">
        <lane id=":node1_7_0" index="0" speed="11.11" length="11.81" width="3.00" shape="610.75,301.55 605.37,300.78 601.53,298.48 600.55,296.85"/>
    </edge>
    <edge id=":node1_17" function="internal">
        <lane id=":node1_17_0" index="0" speed="11.11" length="8.02" width="3.00" shape="600.55,296.85 599.22,294.63 598.45,289.25"/>
    </edge>
    <edge id=":node1_8" function="internal">
        <lane id=":node1_8_0" index="0" speed="11.11" length="4.84" width="3.00" shape="607.75,289.25 607.94,290.56 608.50,291.50 609.44,292.06 610.75,292.25"/>
    </edge>
    <edge id=":node1_9" function="internal">
        <lane id=":node1_9_0" index="0" speed="11.11" length="21.50" width="3.00" shape="607.75,289.25 607.75,310.75"/>
        <lane id=":node1_9_1" index="1" speed="11.11" length="21.50" width="3.00" shape="604.65,289.25 604.65,310.75"/>
    </edge>
    <edge id=":node1_11" function="internal">
        <lane id=":node1_11_0" index="0" speed="11.11" length="11.81" width="3.00" shape="601.55,289.25 600.78,294.63 598.47,298.48 596.85,299.45"/>
    </edge>
    <edge id=":node1_18" function="internal">
        <lane id=":node1_18_0" index="0" speed="11.11" length="8.02" width="3.00" shape="596.85,299.45 594.63,300.78 589.25,301.55"/>
    </edge>
    <edge id=":node1_12" function="internal">
        <lane id=":node1_12_0" index="0" speed="11.11" length="4.84" width="3.00" shape="589.25,292.25 590.56,292.06 591.50,291.50 592.06,290.56 592.25,289.25"/>
    </edge>
    <edge id=":node1_13" function="internal">
        <lane id=":node1_13_0" index="0" speed="11.11" length="21.50" width="3.00" shape="589.25,292.25 610.75,292.25"/>
        <lane id=":node1_13_1" index="1" speed="11.11" length="21.50" width="3.00" shape="589.25,295.35 610.75,295.35"/>
    </edge>
    <edge id=":node1_15" function="internal">
        <lane id=":node1_15_0" index="0" speed="11.11" length="11.81" width="3.00" shape="589.25,298.45 594.63,299.22 598.47,301.52 599.45,303.15"/>
    </edge>
    <edge id=":node1_19" function="internal">
        <lane id=":node1_19_0" index="0" speed="11.11" length="8.02" width="3.00" shape="599.45,303.15 600.78,305.37 601.55,310.75"/>
    </edge>
    <edge id=":node2_0" function="internal">
        <lane id=":node2_0_0" index="0" speed="11.11" length="4.84" width="3.00" shape="892.25,310.75 892.06,309.44 891.50,308.50 890.56,307.94 889.25,307.75"/>
    </edge>
    <edge id=":node2_1" function="internal">
        <lane id=":node2_1_0" index="0" speed="11.11" length="21.50" width="3.00" shape="892.25,310.75 892.25,289.25"/>
        <lane id=":node2_1_1" index="1" speed="11.11" length="21.50" width="3.00" shape="895.35,310.75 895.35,289.25"/>
    </edge>
    <edge id=":node2_3" function="internal">
        <lane id=":node2_3_0" index="0" speed="11.11" length="11.81" width="3.00" shape="898.45,310.75 899.22,305.37 901.53,301.52 903.15,300.55"/>
    </edge>
    <edge id=":node2_16" function="internal">
        <lane id=":node2_16_0" index="0" speed="11.11" length="8.02" width="3.00" shape="903.15,300.55 905.37,299.22 910.75,298.45"/>
    </edge>
    <edge id=":node2_4" function="internal">
        <lane id=":node2_4_0" index="0" speed="11.11" length="4.84" width="3.00" shape="910.75,307.75 909.44,307.94 908.50,308.50 907.94,309.44 907.75,310.75"/>
    </edge>
    <edge id=":node2_5" function="internal">
        <lane id=":node2_5_0" index="0" speed="11.11" length="21.50" width="3.00" shape="910.75,307.75 889.25,307.75"/>
        <lane id=":node2_5_1" index="1" speed="11.11" length="21.50" width="3.00" shape="910.75,304.65 889.25,304.65"/>
    </edge>
    <edge id=":node2_7" function="internal">
        <lane id=":node2_7_0" index="0" speed="11.11" length="11.81" width="3.00" shape="910.75,301.55 905.37,300.78 901.53,298.48 900.55,296.85"/>
    </edge>
    <edge id=":node2_17" function="internal">
        <lane id=":node2_17_0" index="0" speed="11.11" length="8.02" width="3.00" shape="900.55,296.85 899.22,294.63 898.45,289.25"/>
    </edge>
    <edge id=":node2_8" function="internal">
        <lane id=":node2_8_0" index="0" speed="11.11" length="4.84" width="3.00" shape="907.75,289.25 907.94,290.56 908.50,291.50 909.44,292.06 910.75,292.25"/>
    </edge>
    <edge id=":node2_9" function="internal">
        <lane id=":node2_9_0" index="0" speed="11.11" length="21.50" width="3.00" shape="907.75,289.25 907.75,310.75"/>
        <lane id=":node2_9_1" index="1" speed="11.11" length="21.50" width="3.00" shape="904.65,289.25 904.65,310.75"/>
    </edge>
    <edge id=":node2_11" function="internal">
        <lane id=":node2_11_0" index="0" speed="11.11" length="11.81" width="3.00" shape="901.55,289.25 900.78,294.63 898.47,298.48 896.85,299.45"/>
    </edge>
    <edge id=":node2_18" function="internal">
        <lane id=":node2_18_0" index="0" speed="11.11" length="8.02" width="3.00" shape="896.85,299.45 894.63,300.78 889.25,301.55"/>
    </edge>
    <edge id=":node2_12" function="internal">
        <lane id=":node2_12_0" index="0" speed="11.11" length="4.84" width="3.00" shape="889.25,292.25 890.56,292.06 891.50,291.50 892.06,290.56 892.25,289.25"/>
    </edge>
    <edge id=":node2_13" function="internal">
        <lane id=":node2_13_0" index="0" speed="11.11" length="21.50" width="3.00" shape="889.25,292.25 910.75,292.25"/>
        <lane id=":node2_13_1" index="1" speed="11.11" length="21.50" width="3.00" shape="889.25,295.35 910.75,295.35"/>
    </edge>
    <edge id=":node2_15" function="internal">
        <lane id=":node2_15_0" index="0" speed="11.11" length="11.81" width="3.00" shape="889.25,298.45 894.63,299.22 898.47,301.52 899.45,303.15"/>
    </edge>
    <edge id=":node2_19" function="internal">
        <lane id=":node2_19_0" index="0" speed="11.11" length="8.02" width="3.00" shape="899.45,303.15 900.78,305.37 901.55,310.75"/>
    </edge>
    <edge id=":node3_0" function="internal">
        <lane id=":node3_0_0" index="0" speed="11.11" length="4.84" width="3.00" shape="1192.25,310.75 1192.06,309.44 1191.50,308.50 1190.56,307.94 1189.25,307.75"/>
    </edge>
    <edge id=":node3_1" function="internal">
        <lane id=":node3_1_0" index="0" speed="11.11" length="21.50" width="3.00" shape="1192.25,310.75 1192.25,289.25"/>
        <lane id=":node3_1_1" index="1" speed="11.11" length="21.50" width="3.00" shape="1195.35,310.75 1195.35,289.25"/>
    </edge>
    <edge id=":node3_3" function="internal">
        <lane id=":node3_3_0" index="0" speed="11.11" length="11.81" width="3.00" shape="1198.45,310.75 1199.22,305.37 1201.53,301.52 1203.15,300.55"/>
    </edge>
    <edge id=":node3_16" function="internal">
        <lane id=":node3_16_0" index="0" speed="11.11" length="8.02" width="3.00" shape="1203.15,300.55 1205.37,299.22 1210.75,298.45"/>
    </edge>
    <edge id=":node3_4" function="internal">
        <lane id=":node3_4_0" index="0" speed="11.11" length="4.84" width="3.00" shape="1210.75,307.75 1209.44,307.94 1208.50,308.50 1207.94,309.44 1207.75,310.75"/>
    </edge>
    <edge id=":node3_5" function="internal">
        <lane id=":node3_5_0" index="0" speed="11.11" length="21.50" width="3.00" shape="1210.75,307.75 1189.25,307.75"/>
        <lane id=":node3_5_1" index="1" speed="11.11" length="21.50" width="3.00" shape="1210.75,304.65 1189.25,304.65"/>
    </edge>
    <edge id=":node3_7" function="internal">
        <lane id=":node3_7_0" index="0" speed="11.11" length="11.81" width="3.00" shape="1210.75,301.55 1205.37,300.78 1201.53,298.48 1200.55,296.85"/>
    </edge>
    <edge id=":node3_17" function="internal">
        <lane id=":node3_17_0" index="0" speed="11.11" length="8.02" width="3.00" shape="1200.55,296.85 1199.22,294.63 1198.45,289.25"/>
    </edge>
    <edge id=":node3_8" function="internal">
        <lane id=":node3_8_0" index="0" speed="11.11" length="4.84" width="3.00" shape="1207.75,289.25 1207.94,290.56 1208.50,291.50 1209.44,292.06 1210.75,292.25"/>
    </edge>
    <edge id=":node3_9" function="internal">
        <lane id=":node3_9_0" index="0" speed="11.11" length="21.50" width="3.00" shape="1207.75,289.25 1207.75,310.75"/>
        <lane id=":node3_9_1" index="1" speed="11.11" length="21.50" width="3.00" shape="1204.65,289.25 1204.65,310.75"/>
    </edge>
    <edge id=":node3_11" function="internal">
        <lane id=":node3_11_0" index="0" speed="11.11" length="11.81" width="3.00" shape="1201.55,289.25 1200.78,294.63 1198.47,298.48 1196.85,299.45"/>
    </edge>
    <edge id=":node3_18" function="internal">
        <lane id=":node3_18_0" index="0" speed="11.11" length="8.02" width="3.00" shape="1196.85,299.45 1194.63,300.78 1189.25,301.55"/>
    </edge>
    <edge id=":node3_12" function="internal">
        <lane id=":node3_12_0" index="0" speed="11.11" length="4.84" width="3.00" shape="1189.25,292.25 1190.56,292.06 1191.50,291.50 1192.06,290.56 1192.25,289.25"/>
    </edge>
    <edge id=":node3_13" function="internal">
        <lane id=":node3_13_0" index="0" speed="11.11" length="21.50" width="3.00" shape="1189.25,292.25 1210.75,292.25"/>
        <lane id=":node3_13_1" index="1" speed="11.11" length="21.50" width="3.00" shape="1189.25,295.35 1210.75,295.35"/>
    </edge>
    <edge id=":node3_15" function="internal">
        <lane id=":node3_15_0" index="0" speed="11.11" length="11.81" width="3.00" shape="1189.25,298.45 1194.63,299.22 1198.47,301.52 1199.45,303.15"/>
    </edge>
    <edge id=":node3_19" function="internal">
        <lane id=":node3_19_0" index="0" speed="11.11" length="8.02" width="3.00" shape="1199.45,303.15 1200.78,305.37 1201.55,310.75"/>
    </edge>
    <edge id=":node4_0" function="internal">
        <lane id=":node4_0_0" index="0" speed="11.11" length="4.84" width="3.00" shape="1492.25,310.75 1492.06,309.44 1491.50,308.50 1490.56,307.94 1489.25,307.75"/>
    </edge>
    <edge id=":node4_1" function="internal">
        <lane id=":node4_1_0" index="0" speed="11.11" length="21.50" width="3.00" shape="1492.25,310.75 1492.25,289.25"/>
        <lane id=":node4_1_1" index="1" speed="11.11" length="21.50" width="3.00" shape="1495.35,310.75 1495.35,289.25"/>
    </edge>
    <edge id=":node4_3" function="internal">
        <lane id=":node4_3_0" index="0" speed="11.11" length="11.81" width="3.00" shape="1498.45,310.75 1499.22,305.37 1501.53,301.52 1503.15,300.55"/>
    </edge>
    <edge id=":node4_16" function="internal">
        <lane id=":node4_16_0" index="0" speed="11.11" length="8.02" width="3.00" shape="1503.15,300.55 1505.37,299.22 1510.75,298.45"/>
    </edge>
    <edge id=":node4_4" function="internal">
        <lane id=":node4_4_0" index="0" speed="11.11" length="4.84" width="3.00" shape="1510.75,307.75 1509.44,307.94 1508.50,308.50 1507.94,309.44 1507.75,310.75"/>
    </edge>
    <edge id=":node4_5" function="internal">
        <lane id=":node4_5_0" index="0" speed="11.11" length="21.50" width="3.00" shape="1510.75,307.75 1489.25,307.75"/>
        <lane id=":node4_5_1" index="1" speed="11.11" length="21.50" width="3.00" shape="1510.75,304.65 1489.25,304.65"/>
    </edge>
    <edge id=":node4_7" function="internal">
        <lane id=":node4_7_0" index="0" speed="11.11" length="11.81" width="3.00" shape="1510.75,301.55 1505.37,300.78 1501.52,298.48 1500.55,296.85"/>
    </edge>
    <edge id=":node4_17" function="internal">
        <lane id=":node4_17_0" index="0" speed="11.11" length="8.02" width="3.00" shape="1500.55,296.85 1499.22,294.63 1498.45,289.25"/>
    </edge>
    <edge id=":node4_8" function="internal">
        <lane id=":node4_8_0" index="0" speed="11.11" length="4.84" width="3.00" shape="1507.75,289.25 1507.94,290.56 1508.50,291.50 1509.44,292.06 1510.75,292.25"/>
    </edge>
    <edge id=":node4_9" function="internal">
        <lane id=":node4_9_0" index="0" speed="11.11" length="21.50" width="3.00" shape="1507.75,289.25 1507.75,310.75"/>
        <lane id=":node4_9_1" index="1" speed="11.11" length="21.50" width="3.00" shape="1504.65,289.25 1504.65,310.75"/>
    </edge>
    <edge id=":node4_11" function="internal">
        <lane id=":node4_11_0" index="0" speed="11.11" length="11.81" width="3.00" shape="1501.55,289.25 1500.78,294.63 1498.47,298.48 1496.85,299.45"/>
    </edge>
    <edge id=":node4_18" function="internal">
        <lane id=":node4_18_0" index="0" speed="11.11" length="8.02" width="3.00" shape="1496.85,299.45 1494.63,300.78 1489.25,301.55"/>
    </edge>
    <edge id=":node4_12" function="internal">
        <lane id=":node4_12_0" index="0" speed="11.11" length="4.84" width="3.00" shape="1489.25,292.25 1490.56,292.06 1491.50,291.50 1492.06,290.56 1492.25,289.25"/>
    </edge>
    <edge id=":node4_13" function="internal">
        <lane id=":node4_13_0" index="0" speed="11.11" length="21.50" width="3.00" shape="1489.25,292.25 1510.75,292.25"/>
        <lane id=":node4_13_1" index="1" speed="11.11" length="21.50" width="3.00" shape="1489.25,295.35 1510.75,295.35"/>
    </edge>
    <edge id=":node4_15" function="internal">
        <lane id=":node4_15_0" index="0" speed="11.11" length="11.81" width="3.00" shape="1489.25,298.45 1494.63,299.22 1498.48,301.52 1499.45,303.15"/>
    </edge>
    <edge id=":node4_19" function="internal">
        <lane id=":node4_19_0" index="0" speed="11.11" length="8.02" width="3.00" shape="1499.45,303.15 1500.78,305.37 1501.55,310.75"/>
    </edge>
    <edge id=":node5_0" function="internal">
        <lane id=":node5_0_0" index="0" speed="11.11" length="4.84" width="3.00" shape="1792.25,310.75 1792.06,309.44 1791.50,308.50 1790.56,307.94 1789.25,307.75"/>
    </edge>
    <edge id=":node5_1" function="internal">
        <lane id=":node5_1_0" index="0" speed="11.11" length="21.50" width="3.00" shape="1792.25,310.75 1792.25,289.25"/>
        <lane id=":node5_1_1" index="1" speed="11.11" length="21.50" width="3.00" shape="1795.35,310.75 1795.35,289.25"/>
    </edge>
    <edge id=":node5_3" function="internal">
        <lane id=":node5_3_0" index="0" speed="11.11" length="11.81" width="3.00" shape="1798.45,310.75 1799.22,305.37 1801.53,301.52 1803.15,300.55"/>
    </edge>
    <edge id=":node5_16" function="internal">
        <lane id=":node5_16_0" index="0" speed="11.11" length="8.02" width="3.00" shape="1803.15,300.55 1805.37,299.22 1810.75,298.45"/>
    </edge>
    <edge id=":node5_4" function="internal">
        <lane id=":node5_4_0" index="0" speed="11.11" length="4.84" width="3.00" shape="1810.75,307.75 1809.44,307.94 1808.50,308.50 1807.94,309.44 1807.75,310.75"/>
    </edge>
    <edge id=":node5_5" function="internal">
        <lane id=":node5_5_0" index="0" speed="11.11" length="21.50" width="3.00" shape="1810.75,307.75 1789.25,307.75"/>
        <lane id=":node5_5_1" index="1" speed="11.11" length="21.50" width="3.00" shape="1810.75,304.65 1789.25,304.65"/>
    </edge>
    <edge id=":node5_7" function="internal">
        <lane id=":node5_7_0" index="0" speed="11.11" length="11.81" width="3.00" shape="1810.75,301.55 1805.37,300.78 1801.52,298.48 1800.55,296.85"/>
    </edge>
    <edge id=":node5_17" function="internal">
        <lane id=":node5_17_0" index="0" speed="11.11" length="8.02" width="3.00" shape="1800.55,296.85 1799.22,294.63 1798.45,289.25"/>
    </edge>
    <edge id=":node5_8" function="internal">
        <lane id=":node5_8_0" index="0" speed="11.11" length="4.84" width="3.00" shape="1807.75,289.25 1807.94,290.56 1808.50,291.50 1809.44,292.06 1810.75,292.25"/>
    </edge>
    <edge id=":node5_9" function="internal">
        <lane id=":node5_9_0" index="0" speed="11.11" length="21.50" width="3.00" shape="1807.75,289.25 1807.75,310.75"/>
        <lane id=":node5_9_1" index="1" speed="11.11" length="21.50" width="3.00" shape="1804.65,289.25 1804.65,310.75"/>
    </edge>
    <edge id=":node5_11" function="internal">
        <lane id=":node5_11_0" index="0" speed="11.11" length="11.81" width="3.00" shape="1801.55,289.25 1800.78,294.63 1798.47,298.48 1796.85,299.45"/>
    </edge>
    <edge id=":node5_18" function="internal">
        <lane id=":node5_18_0" index="0" speed="11.11" length="8.02" width="3.00" shape="1796.85,299.45 1794.63,300.78 1789.25,301.55"/>
    </edge>
    <edge id=":node5_12" function="internal">
        <lane id=":node5_12_0" index="0" speed="11.11" length="4.84" width="3.00" shape="1789.25,292.25 1790.56,292.06 1791.50,291.50 1792.06,290.56 1792.25,289.25"/>
    </edge>
    <edge id=":node5_13" function="internal">
        <lane id=":node5_13_0" index="0" speed="11.11" length="21.50" width="3.00" shape="1789.25,292.25 1810.75,292.25"/>
        <lane id=":node5_13_1" index="1" speed="11.11" length="21.50" width="3.00" shape="1789.25,295.35 1810.75,295.35"/>
    </edge>
    <edge id=":node5_15" function="internal">
        <lane id=":node5_15_0" index="0" speed="11.11" length="11.81" width="3.00" shape="1789.25,298.45 1794.63,299.22 1798.48,301.52 1799.45,303.15"/>
    </edge>
    <edge id=":node5_19" function="internal">
        <lane id=":node5_19_0" index="0" speed="11.11" length="8.02" width="3.00" shape="1799.45,303.15 1800.78,305.37 1801.55,310.75"/>
    </edge>

    <edge id="edge-0-1" from="node0" to="node1" priority="78" type="go_in_to_junction">
        <lane id="edge-0-1_0" index="0" speed="11.11" length="278.50" width="3.00" shape="310.75,292.25 589.25,292.25"/>
        <lane id="edge-0-1_1" index="1" speed="11.11" length="278.50" width="3.00" shape="310.75,295.35 589.25,295.35"/>
        <lane id="edge-0-1_2" index="2" speed="11.11" length="278.50" width="3.00" shape="310.75,298.45 589.25,298.45"/>
    </edge>
    <edge id="edge-0-down" from="node0" to="node0_down" priority="78" type="go_in_to_junction">
        <lane id="edge-0-down_0" index="0" speed="11.11" length="289.25" width="3.00" shape="292.25,289.25 292.25,0.00"/>
        <lane id="edge-0-down_1" index="1" speed="11.11" length="289.25" width="3.00" shape="295.35,289.25 295.35,0.00"/>
        <lane id="edge-0-down_2" index="2" speed="11.11" length="289.25" width="3.00" shape="298.45,289.25 298.45,0.00"/>
    </edge>
    <edge id="edge-0-left" from="node0" to="left" priority="78" type="go_in_to_junction">
        <lane id="edge-0-left_0" index="0" speed="11.11" length="289.25" width="3.00" shape="289.25,307.75 0.00,307.75"/>
        <lane id="edge-0-left_1" index="1" speed="11.11" length="289.25" width="3.00" shape="289.25,304.65 0.00,304.65"/>
        <lane id="edge-0-left_2" index="2" speed="11.11" length="289.25" width="3.00" shape="289.25,301.55 0.00,301.55"/>
    </edge>
    <edge id="edge-0-up" from="node0" to="node0_up" priority="78" type="go_in_to_junction">
        <lane id="edge-0-up_0" index="0" speed="11.11" length="289.25" width="3.00" shape="307.75,310.75 307.75,600.00"/>
        <lane id="edge-0-up_1" index="1" speed="11.11" length="289.25" width="3.00" shape="304.65,310.75 304.65,600.00"/>
        <lane id="edge-0-up_2" index="2" speed="11.11" length="289.25" width="3.00" shape="301.55,310.75 301.55,600.00"/>
    </edge>
    <edge id="edge-1-0" from="node1" to="node0" priority="78" type="go_in_to_junction">
        <lane id="edge-1-0_0" index="0" speed="11.11" length="278.50" width="3.00" shape="589.25,307.75 310.75,307.75"/>
        <lane id="edge-1-0_1" index="1" speed="11.11" length="278.50" width="3.00" shape="589.25,304.65 310.75,304.65"/>
        <lane id="edge-1-0_2" index="2" speed="11.11" length="278.50" width="3.00" shape="589.25,301.55 310.75,301.55"/>
    </edge>
    <edge id="edge-1-2" from="node1" to="node2" priority="78" type="go_in_to_junction">
        <lane id="edge-1-2_0" index="0" speed="11.11" length="278.50" width="3.00" shape="610.75,292.25 889.25,292.25"/>
        <lane id="edge-1-2_1" index="1" speed="11.11" length="278.50" width="3.00" shape="610.75,295.35 889.25,295.35"/>
        <lane id="edge-1-2_2" index="2" speed="11.11" length="278.50" width="3.00" shape="610.75,298.45 889.25,298.45"/>
    </edge>
    <edge id="edge-1-down" from="node1" to="node1_down" priority="78" type="go_in_to_junction">
        <lane id="edge-1-down_0" index="0" speed="11.11" length="289.25" width="3.00" shape="592.25,289.25 592.25,0.00"/>
        <lane id="edge-1-down_1" index="1" speed="11.11" length="289.25" width="3.00" shape="595.35,289.25 595.35,0.00"/>
        <lane id="edge-1-down_2" index="2" speed="11.11" length="289.25" width="3.00" shape="598.45,289.25 598.45,0.00"/>
    </edge>
    <edge id="edge-1-up" from="node1" to="node1_up" priority="78" type="go_in_to_junction">
        <lane id="edge-1-up_0" index="0" speed="11.11" length="289.25" width="3.00" shape="607.75,310.75 607.75,600.00"/>
        <lane id="edge-1-up_1" index="1" speed="11.11" length="289.25" width="3.00" shape="604.65,310.75 604.65,600.00"/>
        <lane id="edge-1-up_2" index="2" speed="11.11" length="289.25" width="3.00" shape="601.55,310.75 601.55,600.00"/>
    </edge>
    <edge id="edge-2-1" from="node2" to="node1" priority="78" type="go_in_to_junction">
        <lane id="edge-2-1_0" index="0" speed="11.11" length="278.50" width="3.00" shape="889.25,307.75 610.75,307.75"/>
        <lane id="edge-2-1_1" index="1" speed="11.11" length="278.50" width="3.00" shape="889.25,304.65 610.75,304.65"/>
        <lane id="edge-2-1_2" index="2" speed="11.11" length="278.50" width="3.00" shape="889.25,301.55 610.75,301.55"/>
    </edge>
    <edge id="edge-2-3" from="node2" to="node3" priority="78" type="go_in_to_junction">
        <lane id="edge-2-3_0" index="0" speed="11.11" length="278.50" width="3.00" shape="910.75,292.25 1189.25,292.25"/>
        <lane id="edge-2-3_1" index="1" speed="11.11" length="278.50" width="3.00" shape="910.75,295.35 1189.25,295.35"/>
        <lane id="edge-2-3_2" index="2" speed="11.11" length="278.50" width="3.00" shape="910.75,298.45 1189.25,298.45"/>
    </edge>
    <edge id="edge-2-down" from="node2" to="node2_down" priority="78" type="go_in_to_junction">
        <lane id="edge-2-down_0" index="0" speed="11.11" length="289.25" width="3.00" shape="892.25,289.25 892.25,0.00"/>
        <lane id="edge-2-down_1" index="1" speed="11.11" length="289.25" width="3.00" shape="895.35,289.25 895.35,0.00"/>
        <lane id="edge-2-down_2" index="2" speed="11.11" length="289.25" width="3.00" shape="898.45,289.25 898.45,0.00"/>
    </edge>
    <edge id="edge-2-up" from="node2" to="node2_up" priority="78" type="go_in_to_junction">
        <lane id="edge-2-up_0" index="0" speed="11.11" length="289.25" width="3.00" shape="907.75,310.75 907.75,600.00"/>
        <lane id="edge-2-up_1" index="1" speed="11.11" length="289.25" width="3.00" shape="904.65,310.75 904.65,600.00"/>
        <lane id="edge-2-up_2" index="2" speed="11.11" length="289.25" width="3.00" shape="901.55,310.75 901.55,600.00"/>
    </edge>
    <edge id="edge-3-2" from="node3" to="node2" priority="78" type="go_in_to_junction">
        <lane id="edge-3-2_0" index="0" speed="11.11" length="278.50" width="3.00" shape="1189.25,307.75 910.75,307.75"/>
        <lane id="edge-3-2_1" index="1" speed="11.11" length="278.50" width="3.00" shape="1189.25,304.65 910.75,304.65"/>
        <lane id="edge-3-2_2" index="2" speed="11.11" length="278.50" width="3.00" shape="1189.25,301.55 910.75,301.55"/>
    </edge>
    <edge id="edge-3-4" from="node3" to="node4" priority="78" type="go_in_to_junction">
        <lane id="edge-3-4_0" index="0" speed="11.11" length="278.50" width="3.00" shape="1210.75,292.25 1489.25,292.25"/>
        <lane id="edge-3-4_1" index="1" speed="11.11" length="278.50" width="3.00" shape="1210.75,295.35 1489.25,295.35"/>
        <lane id="edge-3-4_2" index="2" speed="11.11" length="278.50" width="3.00" shape="1210.75,298.45 1489.25,298.45"/>
    </edge>