<?xml version="1.0" encoding="UTF-8"?>
<nodes xmlns:xsi="http://www.w3.org/2001/XMLSchema-instance" xsi:noNamespaceSchemaLocation="http://sumo.dlr.de/xsd/nodes_file.xsd">
      <node id="node0" x="-450.0" y="0.0"  type="traffic_light"/>
      <node id="node1" x="-150.0" y="0.0"  type="traffic_light"/>
      <node id="node2" x="150.0" y="0.0"  type="traffic_light"/>
      <node id="node3" x="450.0" y="0.0"  type="traffic_light"/>
      <node id="node4" x="750.0" y="0.0"  type="traffic_light"/>
      <node id="node5" x="1050.0" y="0.0"  type="traffic_light"/>

   <node id="left" x="-750.0" y="0.0" type="priority"/>
   <node id="right" x="1350.0" y="0.0" type="priority"/>
   
   <node id="node0_up" x="-450.0" y="300.0" type="priority"/>
   <node id="node0_down" x="-450.0" y="-300.0" type="priority"/>
   <node id="node0_up_end" x="-450.0" y="-310.0" type="priority"/>
   <node id="node0_down_end" x="-450.0" y="+310.0" type="priority"/>

   <node id="node1_up" x="-150.0" y="300.0" type="priority"/>
   <node id="node1_down" x="-150.0" y="-300.0" type="priority"/>
   <node id="node1_up_end" x="-150.0" y="-310.0" type="priority"/>
   <node id="node1_down_end" x="-150.0" y="+310.0" type="priority"/>

   <node id="node2_up" x="150.0" y="300.0" type="priority"/>
   <node id="node2_down" x="150.0" y="-300.0" type="priority"/>
   <node id="node2_up_end" x="150.0" y="-310.0" type="priority"/>
   <node id="node2_down_end" x="150.0" y="+310.0" type="priority"/>


   <node id="node3_up" x="450.0" y="300.0" type="priority"/>
   <node id="node3_down" x="450.0" y="-300.0" type="priority"/>
   <node id="node3_up_end" x="450.0" y="-310.0" type="priority"/>
   <node id="node3_down_end" x="450.0" y="+310.0" type="priority"/>

   <node id="node4_up" x="750.0" y="300.0" type="priority"/>
   <node id="node4_down" x="750.0" y="-300.0" type="priority"/>
   <node id="node4_up_end" x="750.0" y="-310.0" type="priority"/>
   <node id="node4_down_end" x="750.0" y="+310.0" type="priority"/>

   <node id="node5_up" x="1050.0" y="300.0" type="priority"/>
   <node id="node5_down" x="1050.0" y="-300.0" type="priority"/>
   <node id="node5_up_end" x="1050.0" y="-310.0" type="priority"/>
   <node id="node5_down_end" x="1050.0" y="+310.0" type="priority"/>

</nodes>