<tlLogics>
<tlLogic id="inter0_0" type="static" programID="0" offset="0">
<phase duration = "1000000" state = "rrGrrrGr" />
<phase duration = "4" state = "yyyyyyyy" />
<phase duration = "1000000" state = "GGrrGGrr" />
<phase duration = "4" state = "yyyyyyyy" />
</tlLogic>
</tlLogics>
