<?xml version="1.0" encoding="iso-8859-1"?>
<connections xmlns:xsi="http://www.w3.org/2001/XMLSchema-instance" xsi:noNamespaceSchemaLocation="http://sumo.dlr.de/xsd/connections_file.xsd">

    <connection from="edget1-1" to="edge1-0" fromLane="0" toLane="0" />
    <connection from="edge1-0" to="edge0-2" fromLane="0" toLane="0" />
    <connection from="edge0-2" to="edge2-t2" fromLane="0" toLane="0" />

    <connection from="edget2-2" to="edge2-0" fromLane="0" toLane="0" />
    <connection from="edge2-0" to="edge0-1" fromLane="0" toLane="0" />
    <connection from="edge0-1" to="edge1-t1" fromLane="0" toLane="0" />

    <connection from="edget3-3" to="edge3-0" fromLane="0" toLane="0" />
    <connection from="edge3-0" to="edge0-4" fromLane="0" toLane="0" />
    <connection from="edge0-4" to="edge4-t4" fromLane="0" toLane="0" />

    <connection from="edget4-4" to="edge4-0" fromLane="0" toLane="0" />
    <connection from="edge4-0" to="edge0-3" fromLane="0" toLane="0" />
    <connection from="edge0-3" to="edge3-t3" fromLane="0" toLane="0" />
</connections>