<?xml version="1.0" encoding="UTF-8"?>
<nodes xmlns:xsi="http://www.w3.org/2001/XMLSchema-instance" xsi:noNamespaceSchemaLocation="http://sumo.dlr.de/xsd/nodes_file.xsd">

    <node id="node0" x="0.0" y="0.0"  type="traffic_light"/>

    <node id="1" x="-300.0" y="0.0" type="priority"/>
    <node id="2" x="+300.0" y="0.0" type="priority"/>
    <node id="3" x="0.0" y="-300.0" type="priority"/>
    <node id="4" x="0.0" y="+300.0" type="priority"/>

    <node id="t1" x="-350.0" y="0.0" type="priority"/>
    <node id="t2" x="+350.0" y="0.0" type="priority"/>
    <node id="t3" x="0.0" y="-350.0" type="priority"/>
    <node id="t4" x="0.0" y="+350.0" type="priority"/>

</nodes>